Version 4
SHEET 1 1672 808
WIRE -864 -272 -1184 -272
WIRE -672 -272 -864 -272
WIRE -480 -272 -672 -272
WIRE -304 -272 -480 -272
WIRE -144 -272 -304 -272
WIRE -16 -272 -144 -272
WIRE 48 -272 -16 -272
WIRE 192 -272 128 -272
WIRE 272 -272 192 -272
WIRE 512 -272 368 -272
WIRE 560 -272 512 -272
WIRE 784 -272 656 -272
WIRE 944 -272 784 -272
WIRE 1120 -272 944 -272
WIRE 1248 -272 1120 -272
WIRE 1568 -272 1248 -272
WIRE -672 -256 -672 -272
WIRE -480 -256 -480 -272
WIRE 1248 -256 1248 -272
WIRE -864 -240 -864 -272
WIRE -144 -240 -144 -272
WIRE 784 -240 784 -272
WIRE 944 -240 944 -272
WIRE 1120 -240 1120 -272
WIRE -1184 -208 -1184 -272
WIRE -672 -160 -672 -176
WIRE 1120 -160 1120 -176
WIRE 352 -128 352 -224
WIRE 1248 -128 1248 -176
WIRE -1184 -80 -1184 -128
WIRE -864 -80 -864 -176
WIRE -672 -80 -672 -96
WIRE -480 -80 -480 -192
WIRE 1568 -64 1568 -272
WIRE -304 -32 -304 -272
WIRE 352 0 352 -48
WIRE 576 0 576 -224
WIRE 576 0 352 0
WIRE 608 0 576 0
WIRE -144 32 -144 -160
WIRE 496 32 -144 32
WIRE 192 48 192 -272
WIRE 352 48 352 0
WIRE 944 48 944 -160
WIRE 1120 48 944 48
WIRE -304 80 -304 48
WIRE 944 112 944 48
WIRE 1248 112 1248 -64
WIRE -16 128 -16 -272
WIRE 96 128 -16 128
WIRE 512 128 512 -272
WIRE 512 128 448 128
WIRE -304 192 -304 160
WIRE 96 192 -304 192
WIRE 784 192 784 -160
WIRE 784 192 448 192
WIRE 896 192 784 192
WIRE 1120 192 1120 48
WIRE 1200 192 1120 192
WIRE -304 224 -304 192
WIRE 96 256 -128 256
WIRE 944 256 944 208
WIRE 1248 256 1248 208
WIRE 1568 256 1568 16
WIRE 608 272 608 0
WIRE -304 320 -304 304
WIRE -128 320 -128 256
WIRE -128 320 -304 320
WIRE 96 320 -80 320
WIRE 496 320 496 32
WIRE 496 320 448 320
WIRE -304 336 -304 320
WIRE 96 384 -32 384
WIRE 496 384 448 384
WIRE 496 400 496 384
WIRE 608 400 608 352
WIRE -304 432 -304 416
WIRE -80 432 -80 320
WIRE -80 432 -304 432
WIRE -304 448 -304 432
WIRE 272 480 272 448
WIRE 496 480 496 464
WIRE 608 480 608 464
WIRE -304 544 -304 528
WIRE -32 544 -32 384
WIRE -32 544 -304 544
FLAG 608 480 0
FLAG -672 -80 0
FLAG -480 -80 0
FLAG 272 480 0
FLAG 496 480 0
FLAG 944 256 0
FLAG 1120 -160 0
FLAG 1248 256 0
FLAG 1568 256 0
FLAG -1184 -80 0
FLAG -864 -80 0
SYMBOL PowerProducts\\LTC4231-2 272 256 R0
SYMATTR InstName U1
SYMBOL nmos 272 -224 R270
SYMATTR InstName M1
SYMATTR Value Si7336ADP
SYMBOL nmos 656 -224 M270
SYMATTR InstName M2
SYMATTR Value Si7336ADP
SYMBOL res 336 -144 R0
SYMATTR InstName R1
SYMATTR Value 10
SYMATTR SpiceLine tol=1 pwr=0.25
SYMBOL res 144 -288 R90
WINDOW 0 0 56 VBottom 2
WINDOW 3 32 56 VTop 2
SYMATTR InstName R2
SYMATTR Value 15m
SYMATTR SpiceLine tol=1 pwr=1
SYMBOL res -160 -256 R0
SYMATTR InstName R3
SYMATTR Value 100k
SYMATTR SpiceLine tol=1 pwr=0.25
SYMBOL res 592 256 R0
SYMATTR InstName R4
SYMATTR Value 1k
SYMATTR SpiceLine tol=1 pwr=0.25
SYMBOL cap 592 400 R0
SYMATTR InstName C1
SYMATTR Value 2.2n
SYMBOL res -320 64 R0
SYMATTR InstName R5
SYMATTR Value 12.1k
SYMATTR SpiceLine tol=1 pwr=0.25
SYMBOL res -320 208 R0
SYMATTR InstName R6
SYMATTR Value 4.12k
SYMATTR SpiceLine tol=1 pwr=0.25
SYMBOL res -320 320 R0
SYMATTR InstName R7
SYMATTR Value 13.7k
SYMATTR SpiceLine tol=1 pwr=0.25
SYMBOL res -320 432 R0
SYMATTR InstName R8
SYMATTR Value 150k
SYMATTR SpiceLine tol=1 pwr=0.25
SYMBOL res -320 -48 R0
SYMATTR InstName R9
SYMATTR Value 825k
SYMATTR SpiceLine tol=1 pwr=0.25
SYMBOL cap -496 -256 R0
SYMATTR InstName C2
SYMATTR Value 1µ
SYMBOL res -688 -272 R0
SYMATTR InstName R10
SYMATTR Value 10
SYMATTR SpiceLine tol=1 pwr=0.25
SYMBOL cap -688 -160 R0
SYMATTR InstName C3
SYMATTR Value 100n
SYMBOL cap 480 400 R0
SYMATTR InstName C4
SYMATTR Value 100n
SYMBOL res 768 -256 R0
SYMATTR InstName R11
SYMATTR Value 100k
SYMATTR SpiceLine tol=1 pwr=0.25
SYMBOL nmos 896 112 R0
SYMATTR InstName M3
SYMATTR Value Si7336ADP
SYMBOL nmos 1200 112 R0
SYMATTR InstName M4
SYMATTR Value Si7336ADP
SYMBOL res 928 -256 R0
SYMATTR InstName R12
SYMATTR Value 100k
SYMATTR SpiceLine tol=1 pwr=0.25
SYMBOL cap 1104 -240 R0
SYMATTR InstName C5
SYMATTR Value 1µ
SYMBOL res 1232 -272 R0
SYMATTR InstName R13
SYMATTR Value 330
SYMATTR SpiceLine tol=1 pwr=0.25
SYMBOL LED 1232 -128 R0
SYMATTR InstName D1
SYMBOL res 1552 -80 R0
SYMATTR InstName R14
SYMATTR Value 1.5
SYMATTR SpiceLine tol=1 pwr=10
SYMBOL voltage -1184 -224 R0
WINDOW 123 0 0 Left 0
WINDOW 39 0 0 Left 0
SYMATTR InstName V1
SYMATTR Value PWL file=IEC61000-4-2_ESD_4kV.txt
SYMBOL TVSdiode -880 -240 R0
SYMATTR InstName D2
SYMATTR Value SMCJ5_0CA
SYMATTR Prefix X
TEXT -1152 640 Left 2 !.tran 5s
TEXT -1152 728 Left 2 !.lib D:\\kicad\\thomas-thermostat\\v2.0\\switchboard\\v3.0\\switchboard\\simulation-ltspice\\parts\\smcj5.0ca\\SMCJ.lib
TEXT -1144 696 Left 2 ;For SMCJ5_0CA
